/*--------------------------------*- C++ -*----------------------------------*\
  =========                 |				
  \\      /  F ield         | OpenFOAM: The Open Source CFD Toolbox
   \\    /   O peration     | Website:  https://openfoam.org
    \\  /    A nd           | Version:  10                                   	
     \\/     M anipulation  |
\*---------------------------------------------------------------------------*/
FoamFile
{
	format		ascii;
	class		dictionary;
	object		momentumTransport;
}
// * * * * * * * * * * * * * * * * * * * * * * * * * * * * * * * * * * * * * //

simulationType  LES;

LES
{
	LESModel        Smagorinsky;
	turbulence      on;
	printCoeffs     on;
	delta		cubeRootVol;
	cubeRootVolCoeffs
	{
		deltaCoeff	1;
	}
}

