/*--------------------------------*- C++ -*----------------------------------*\
  =========                 |				
  \\      /  F ield         | OpenFOAM: The Open Source CFD Toolbox
   \\    /   O peration     | Website:  https://openfoam.org
    \\  /    A nd           | Version:  10                                   	
     \\/     M anipulation  |
\*---------------------------------------------------------------------------*/
FoamFile
{{
	format		ascii;
	class		volVectorField;
	object		U;
}}
// * * * * * * * * * * * * * * * * * * * * * * * * * * * * * * * * * * * * * //

dimensions	[0 1 -1 0 0 0 0];

internalField	uniform (0. 0. {velocity:.12f});

boundaryField
{{
	minX
	{{
		type	slip;
	}}
    
	maxX
	{{
		type	slip;
	}}
    
	minY
	{{
		type	slip;
	}}
    
	maxY
	{{
		type	slip;
	}}

	minZ
	{{
		type	fixedValue;
		value	uniform (0. 0. {velocity:.12f});
	}}

	maxZ
	{{
		type		inletOutlet;
		inletValue	uniform (0. 0. 0.);
		value		uniform (0. 0. 0.);
	}}
    
	stlsurface
	{{
		type	fixedValue;
		value	uniform (0 0 0);
	}}
}}

