/*--------------------------------*- C++ -*----------------------------------*\
  =========                 |				
  \\      /  F ield         | OpenFOAM: The Open Source CFD Toolbox
   \\    /   O peration     | Website:  https://openfoam.org
    \\  /    A nd           | Version:  10                                   	
     \\/     M anipulation  |
\*---------------------------------------------------------------------------*/
FoamFile
{{
	format		ascii;
	class		dictionary;
	object		MRFProperties;
}}
// * * * * * * * * * * * * * * * * * * * * * * * * * * * * * * * * * * * * * //

zone1
{{
	cellZone	all;
	active		yes;

	nonRotatingPatches (outside minX maxX);

	origin		(0 0 0);
	axis		(1 0 0);
	omega		constant {angular_velocity:.12f};
}}

